/*---------------------------------------------------------------------------*\
  =========                 |
  \\      /  F ield         | OpenFOAM: The Open Source CFD Toolbox
   \\    /   O peration     | Website:  https://openfoam.org
    \\  /    A nd           | Version:  10
     \\/     M anipulation  |
\*---------------------------------------------------------------------------*/
Build  : 10-c4cf895ad8fa
Exec   : pimpleFoam -case /home/hk/hk_project/ChatCFD_to_hk/run_chatcfd/TransientFlow_CircularCylinder_Re3p6e6_2
Date   : May 11 2025
Time   : 00:27:56
Host   : "WP"
PID    : 53823
I/O    : uncollated
Case   : /home/hk/hk_project/ChatCFD_to_hk/run_chatcfd/TransientFlow_CircularCylinder_Re3p6e6_2
nProcs : 1
sigFpe : Enabling floating point exception trapping (FOAM_SIGFPE).
fileModificationChecking : Monitoring run-time modified files using timeStampMaster (fileModificationSkew 10)
allowSystemOperations : Allowing user-supplied system call operations

// * * * * * * * * * * * * * * * * * * * * * * * * * * * * * * * * * * * * * //
Create time

Create mesh for time = 0


PIMPLE: No convergence criteria found


PIMPLE: No corrector convergence criteria found
        Calculations will do 2 corrections


PIMPLE: Operating solver in transient mode with 2 outer correctors


Reading field p

Reading field U

Reading/calculating face flux field phi

Selecting viscosity model Newtonian
Selecting turbulence model type RAS
Selecting RAS turbulence model realizableKE
RAS
{
    RASModel        realizableKE;
    turbulence      on;
    printCoeffs     on;
    A0              4;
    C2              1.9;
    sigmak          1;
    sigmaEps        1.2;
}

No MRF models present

No fvModels present
No fvConstraints present
Courant Number mean: 0.00011122 max: 0.000857398

Starting time loop

Courant Number mean: 0.00011122 max: 0.000857398
deltaT = 1.2e-05
Time = 1.2e-05s

PIMPLE: Iteration 1
smoothSolver:  Solving for Ux, Initial residual = 1, Final residual = 7.64424e-09, No Iterations 1
smoothSolver:  Solving for Uy, Initial residual = 1, Final residual = 5.99519e-08, No Iterations 1
GAMG:  Solving for p, Initial residual = 1, Final residual = 8.70298e-08, No Iterations 20
time step continuity errors : sum local = 1.34554e-14, global = -1.55197e-15, cumulative = -1.55197e-15
PIMPLE: Iteration 2
smoothSolver:  Solving for Ux, Initial residual = 0.0931639, Final residual = 3.00947e-09, No Iterations 1
smoothSolver:  Solving for Uy, Initial residual = 0.130512, Final residual = 3.22294e-09, No Iterations 1
GAMG:  Solving for p, Initial residual = 0.236437, Final residual = 5.04596e-08, No Iterations 19
time step continuity errors : sum local = 3.59669e-14, global = 7.84794e-15, cumulative = 6.29597e-15
smoothSolver:  Solving for epsilon, Initial residual = 1, Final residual = 1.15424e-08, No Iterations 1
smoothSolver:  Solving for k, Initial residual = 1, Final residual = 5.50593e-08, No Iterations 1
ExecutionTime = 0.031709 s  ClockTime = 0 s

Courant Number mean: 0.000135416 max: 0.0018481
deltaT = 1.44e-05
Time = 2.64e-05s

PIMPLE: Iteration 1
smoothSolver:  Solving for Ux, Initial residual = 0.228623, Final residual = 1.00786e-08, No Iterations 1
smoothSolver:  Solving for Uy, Initial residual = 0.296255, Final residual = 1.094e-08, No Iterations 1
GAMG:  Solving for p, Initial residual = 0.280895, Final residual = 4.72951e-08, No Iterations 18
time step continuity errors : sum local = 4.363e-14, global = 6.46984e-15, cumulative = 1.27658e-14
PIMPLE: Iteration 2
smoothSolver:  Solving for Ux, Initial residual = 0.00725206, Final residual = 2.12911e-10, No Iterations 1
smoothSolver:  Solving for Uy, Initial residual = 0.0121922, Final residual = 3.00393e-10, No Iterations 1
GAMG:  Solving for p, Initial residual = 0.419998, Final residual = 3.22585e-08, No Iterations 19
time step continuity errors : sum local = 8.98264e-15, global = 9.91375e-16, cumulative = 1.37572e-14
smoothSolver:  Solving for epsilon, Initial residual = 0.226766, Final residual = 4.19358e-09, No Iterations 1
smoothSolver:  Solving for k, Initial residual = 0.0167484, Final residual = 3.26903e-10, No Iterations 1
ExecutionTime = 0.051801 s  ClockTime = 0 s

Courant Number mean: 0.000162514 max: 0.00224932
deltaT = 1.728e-05
Time = 4.368e-05s

PIMPLE: Iteration 1
smoothSolver:  Solving for Ux, Initial residual = 0.0170017, Final residual = 6.58504e-10, No Iterations 1
smoothSolver:  Solving for Uy, Initial residual = 0.0223688, Final residual = 1.07569e-09, No Iterations 1
GAMG:  Solving for p, Initial residual = 0.367867, Final residual = 9.09212e-08, No Iterations 18
time step continuity errors : sum local = 2.09529e-14, global = -2.07982e-15, cumulative = 1.16774e-14
PIMPLE: Iteration 2
smoothSolver:  Solving for Ux, Initial residual = 0.00112155, Final residual = 7.86609e-11, No Iterations 1
smoothSolver:  Solving for Uy, Initial residual = 0.00133346, Final residual = 1.24022e-10, No Iterations 1
GAMG:  Solving for p, Initial residual = 0.139434, Final residual = 3.85819e-08, No Iterations 18
time step continuity errors : sum local = 4.87962e-15, global = 5.3214e-17, cumulative = 1.17306e-14
smoothSolver:  Solving for epsilon, Initial residual = 0.1369, Final residual = 3.65395e-09, No Iterations 1
smoothSolver:  Solving for k, Initial residual = 0.0183341, Final residual = 5.19119e-10, No Iterations 1
ExecutionTime = 0.070768 s  ClockTime = 0 s

Courant Number mean: 0.000195007 max: 0.00270948
deltaT = 2.0736e-05
Time = 6.4416e-05s

PIMPLE: Iteration 1
smoothSolver:  Solving for Ux, Initial residual = 0.00506917, Final residual = 4.02261e-10, No Iterations 1
smoothSolver:  Solving for Uy, Initial residual = 0.0070619, Final residual = 6.3753e-10, No Iterations 1
GAMG:  Solving for p, Initial residual = 0.198601, Final residual = 3.73699e-08, No Iterations 18
time step continuity errors : sum local = 5.84062e-15, global = -2.79544e-16, cumulative = 1.1451e-14
PIMPLE: Iteration 2
smoothSolver:  Solving for Ux, Initial residual = 0.000770375, Final residual = 7.3441e-11, No Iterations 1
smoothSolver:  Solving for Uy, Initial residual = 0.000926672, Final residual = 1.10034e-10, No Iterations 1
GAMG:  Solving for p, Initial residual = 0.0737133, Final residual = 8.08963e-08, No Iterations 16
time step continuity errors : sum local = 9.77078e-15, global = 2.88133e-16, cumulative = 1.17392e-14
smoothSolver:  Solving for epsilon, Initial residual = 0.102736, Final residual = 3.91749e-09, No Iterations 1
smoothSolver:  Solving for k, Initial residual = 0.0199946, Final residual = 8.14234e-10, No Iterations 1
ExecutionTime = 0.089653 s  ClockTime = 0 s

Courant Number mean: 0.000234 max: 0.00325712
deltaT = 2.48832e-05
Time = 8.92992e-05s

PIMPLE: Iteration 1
smoothSolver:  Solving for Ux, Initial residual = 0.00288387, Final residual = 3.69501e-10, No Iterations 1
smoothSolver:  Solving for Uy, Initial residual = 0.00361073, Final residual = 5.57485e-10, No Iterations 1
GAMG:  Solving for p, Initial residual = 0.142477, Final residual = 3.18013e-08, No Iterations 17
time step continuity errors : sum local = 4.75439e-15, global = -3.53408e-16, cumulative = 1.13858e-14
PIMPLE: Iteration 2
smoothSolver:  Solving for Ux, Initial residual = 0.000570137, Final residual = 7.88934e-11, No Iterations 1
smoothSolver:  Solving for Uy, Initial residual = 0.000671043, Final residual = 1.15323e-10, No Iterations 1
GAMG:  Solving for p, Initial residual = 0.0522803, Final residual = 5.6733e-08, No Iterations 14
time step continuity errors : sum local = 7.04054e-15, global = -1.57329e-17, cumulative = 1.137e-14
smoothSolver:  Solving for epsilon, Initial residual = 0.0849889, Final residual = 4.66567e-09, No Iterations 1
smoothSolver:  Solving for k, Initial residual = 0.0216457, Final residual = 1.26395e-09, No Iterations 1
ExecutionTime = 0.107603 s  ClockTime = 0 s

End

