/*---------------------------------------------------------------------------*\
  =========                 |
  \\      /  F ield         | OpenFOAM: The Open Source CFD Toolbox
   \\    /   O peration     | Website:  https://openfoam.org
    \\  /    A nd           | Version:  10
     \\/     M anipulation  |
\*---------------------------------------------------------------------------*/
Build  : 10-c4cf895ad8fa
Exec   : simpleFoam -case /home/hk/hk_project/ChatCFD_to_hk/run_chatcfd/NACA0012_SA_AoA10_0
Date   : May 10 2025
Time   : 03:10:06
Host   : "WP"
PID    : 56885
I/O    : uncollated
Case   : /home/hk/hk_project/ChatCFD_to_hk/run_chatcfd/NACA0012_SA_AoA10_0
nProcs : 1
sigFpe : Enabling floating point exception trapping (FOAM_SIGFPE).
fileModificationChecking : Monitoring run-time modified files using timeStampMaster (fileModificationSkew 10)
allowSystemOperations : Allowing user-supplied system call operations

// * * * * * * * * * * * * * * * * * * * * * * * * * * * * * * * * * * * * * //
Create time

Create mesh for time = 0


SIMPLE: Convergence criteria found
        U: tolerance 1e-06
        p: tolerance 1e-06
        nuTilda: tolerance 1e-06

Reading field p

Reading field U

Reading/calculating face flux field phi

Selecting viscosity model Newtonian
Selecting turbulence model type RAS
Selecting RAS turbulence model SpalartAllmaras
Selecting patchDistMethod meshWave
RAS
{
    RASModel        SpalartAllmaras;
    turbulence      on;
    printCoeffs     on;
    sigmaNut        0.66666;
    kappa           0.41;
    Cb1             0.1355;
    Cb2             0.622;
    Cw2             0.3;
    Cw3             2;
    Cv1             7.1;
    Cs              0.3;
}

No MRF models present

No fvModels present
No fvConstraints present

Starting time loop

Time = 1s

smoothSolver:  Solving for Ux, Initial residual = 1, Final residual = 0.000616482, No Iterations 1
smoothSolver:  Solving for Uy, Initial residual = 1, Final residual = 0.00140705, No Iterations 1
GAMG:  Solving for p, Initial residual = 1, Final residual = 0.0094875, No Iterations 50
time step continuity errors : sum local = 2.34332e-05, global = 6.51982e-07, cumulative = 6.51982e-07
smoothSolver:  Solving for nuTilda, Initial residual = 1, Final residual = 0.00180779, No Iterations 1
ExecutionTime = 0.254558 s  ClockTime = 0 s

Time = 2s

smoothSolver:  Solving for Ux, Initial residual = 0.0135867, Final residual = 7.60748e-05, No Iterations 1
smoothSolver:  Solving for Uy, Initial residual = 0.0263176, Final residual = 0.000152816, No Iterations 1
GAMG:  Solving for p, Initial residual = 0.0288735, Final residual = 0.000282705, No Iterations 23
time step continuity errors : sum local = 0.00103261, global = 0.000279915, cumulative = 0.000280567
smoothSolver:  Solving for nuTilda, Initial residual = 0.0145267, Final residual = 4.08078e-05, No Iterations 1
ExecutionTime = 0.32025 s  ClockTime = 0 s

Time = 3s

smoothSolver:  Solving for Ux, Initial residual = 0.0039226, Final residual = 1.67128e-05, No Iterations 1
smoothSolver:  Solving for Uy, Initial residual = 0.00401361, Final residual = 1.8773e-05, No Iterations 1
GAMG:  Solving for p, Initial residual = 0.073202, Final residual = 0.000632395, No Iterations 29
time step continuity errors : sum local = 9.87404e-05, global = -1.11597e-05, cumulative = 0.000269407
smoothSolver:  Solving for nuTilda, Initial residual = 0.0049486, Final residual = 2.03729e-05, No Iterations 1
ExecutionTime = 0.393743 s  ClockTime = 0 s

Time = 4s

smoothSolver:  Solving for Ux, Initial residual = 0.00280117, Final residual = 1.17487e-05, No Iterations 1
smoothSolver:  Solving for Uy, Initial residual = 0.00295337, Final residual = 1.37896e-05, No Iterations 1
GAMG:  Solving for p, Initial residual = 0.0339321, Final residual = 0.000299435, No Iterations 18
time step continuity errors : sum local = 5.30381e-05, global = -4.29834e-07, cumulative = 0.000268977
smoothSolver:  Solving for nuTilda, Initial residual = 0.00229457, Final residual = 1.31957e-05, No Iterations 1
ExecutionTime = 0.447808 s  ClockTime = 0 s

Time = 5s

smoothSolver:  Solving for Ux, Initial residual = 0.00184689, Final residual = 6.86996e-06, No Iterations 1
smoothSolver:  Solving for Uy, Initial residual = 0.00199956, Final residual = 9.33139e-06, No Iterations 1
GAMG:  Solving for p, Initial residual = 0.50967, Final residual = 0.0047274, No Iterations 20
time step continuity errors : sum local = 3.32283e-05, global = 4.7705e-07, cumulative = 0.000269454
smoothSolver:  Solving for nuTilda, Initial residual = 0.00123774, Final residual = 9.58587e-06, No Iterations 1
ExecutionTime = 0.592197 s  ClockTime = 0 s

Time = 6s

smoothSolver:  Solving for Ux, Initial residual = 0.00135531, Final residual = 5.39892e-06, No Iterations 1
smoothSolver:  Solving for Uy, Initial residual = 0.00135088, Final residual = 5.71225e-06, No Iterations 1
GAMG:  Solving for p, Initial residual = 0.128972, Final residual = 0.00112192, No Iterations 18
time step continuity errors : sum local = 2.34587e-05, global = -1.99773e-07, cumulative = 0.000269254
smoothSolver:  Solving for nuTilda, Initial residual = 0.000762426, Final residual = 7.37789e-06, No Iterations 1
ExecutionTime = 0.64884 s  ClockTime = 0 s

Time = 7s

smoothSolver:  Solving for Ux, Initial residual = 0.000986475, Final residual = 3.53312e-06, No Iterations 1
smoothSolver:  Solving for Uy, Initial residual = 0.00111518, Final residual = 4.75323e-06, No Iterations 1
GAMG:  Solving for p, Initial residual = 0.459957, Final residual = 0.00365357, No Iterations 18
time step continuity errors : sum local = 1.6525e-05, global = 3.01479e-07, cumulative = 0.000269556
smoothSolver:  Solving for nuTilda, Initial residual = 0.000448391, Final residual = 5.99756e-06, No Iterations 1
ExecutionTime = 0.704725 s  ClockTime = 0 s

Time = 8s

smoothSolver:  Solving for Ux, Initial residual = 0.000804428, Final residual = 3.21583e-06, No Iterations 1
smoothSolver:  Solving for Uy, Initial residual = 0.000855677, Final residual = 3.37565e-06, No Iterations 1
GAMG:  Solving for p, Initial residual = 0.229048, Final residual = 0.00192828, No Iterations 18
time step continuity errors : sum local = 1.41494e-05, global = -2.99668e-07, cumulative = 0.000269256
smoothSolver:  Solving for nuTilda, Initial residual = 0.00030173, Final residual = 4.87398e-06, No Iterations 1
ExecutionTime = 0.760896 s  ClockTime = 0 s

Time = 9s

smoothSolver:  Solving for Ux, Initial residual = 0.000627796, Final residual = 2.23278e-06, No Iterations 1
smoothSolver:  Solving for Uy, Initial residual = 0.000777633, Final residual = 3.14415e-06, No Iterations 1
GAMG:  Solving for p, Initial residual = 0.195333, Final residual = 0.00163743, No Iterations 18
time step continuity errors : sum local = 1.16627e-05, global = 1.59233e-07, cumulative = 0.000269415
smoothSolver:  Solving for nuTilda, Initial residual = 0.000234362, Final residual = 4.00181e-06, No Iterations 1
ExecutionTime = 0.816451 s  ClockTime = 0 s

Time = 10s

smoothSolver:  Solving for Ux, Initial residual = 0.000536757, Final residual = 2.25377e-06, No Iterations 1
smoothSolver:  Solving for Uy, Initial residual = 0.000619354, Final residual = 2.23917e-06, No Iterations 1
GAMG:  Solving for p, Initial residual = 0.180257, Final residual = 0.00149962, No Iterations 18
time step continuity errors : sum local = 9.7242e-06, global = -1.63813e-07, cumulative = 0.000269252
smoothSolver:  Solving for nuTilda, Initial residual = 0.000194601, Final residual = 3.37822e-06, No Iterations 1
ExecutionTime = 0.955956 s  ClockTime = 1 s

End

