/*---------------------------------------------------------------------------*\
  =========                 |
  \\      /  F ield         | OpenFOAM: The Open Source CFD Toolbox
   \\    /   O peration     | Website:  https://openfoam.org
    \\  /    A nd           | Version:  10
     \\/     M anipulation  |
\*---------------------------------------------------------------------------*/
Build  : 10-c4cf895ad8fa
Exec   : simpleFoam -case /home/hk/hk_project/ChatCFD_to_hk/run_chatcfd/Case1_NACA0012_SA_0deg_1
Date   : May 10 2025
Time   : 05:32:19
Host   : "WP"
PID    : 65516
I/O    : uncollated
Case   : /home/hk/hk_project/ChatCFD_to_hk/run_chatcfd/Case1_NACA0012_SA_0deg_1
nProcs : 1
sigFpe : Enabling floating point exception trapping (FOAM_SIGFPE).
fileModificationChecking : Monitoring run-time modified files using timeStampMaster (fileModificationSkew 10)
allowSystemOperations : Allowing user-supplied system call operations

// * * * * * * * * * * * * * * * * * * * * * * * * * * * * * * * * * * * * * //
Create time

Create mesh for time = 0


SIMPLE: Convergence criteria found
        p: tolerance 1e-05
        U: tolerance 1e-05
        nuTilda: tolerance 1e-05

Reading field p

Reading field U

Reading/calculating face flux field phi

Selecting viscosity model Newtonian
Selecting turbulence model type RAS
Selecting RAS turbulence model SpalartAllmaras
Selecting patchDistMethod meshWave
RAS
{
    RASModel        SpalartAllmaras;
    turbulence      on;
    printCoeffs     on;
    sigmaNut        0.66666;
    kappa           0.41;
    Cb1             0.1355;
    Cb2             0.622;
    Cw2             0.3;
    Cw3             2;
    Cv1             7.1;
    Cs              0.3;
}

No MRF models present

No fvModels present
No fvConstraints present

Starting time loop

Time = 1s

smoothSolver:  Solving for Ux, Initial residual = 1, Final residual = 0.0489817, No Iterations 1
smoothSolver:  Solving for Uy, Initial residual = 1, Final residual = 0.052426, No Iterations 1
GAMG:  Solving for p, Initial residual = 1, Final residual = 0.00996699, No Iterations 332
time step continuity errors : sum local = 1.66362e-05, global = 9.03186e-08, cumulative = 9.03186e-08
smoothSolver:  Solving for nuTilda, Initial residual = 1, Final residual = 0.0150263, No Iterations 1
ExecutionTime = 0.752023 s  ClockTime = 1 s

Time = 2s

smoothSolver:  Solving for Ux, Initial residual = 0.00418494, Final residual = 6.91939e-05, No Iterations 2
smoothSolver:  Solving for Uy, Initial residual = 0.370772, Final residual = 0.00654727, No Iterations 2
GAMG:  Solving for p, Initial residual = 0.00534359, Final residual = 5.33441e-05, No Iterations 29
time step continuity errors : sum local = 0.000211846, global = 4.00246e-06, cumulative = 4.09278e-06
smoothSolver:  Solving for nuTilda, Initial residual = 0.00210025, Final residual = 0.000114275, No Iterations 1
ExecutionTime = 0.826004 s  ClockTime = 1 s

Time = 3s

smoothSolver:  Solving for Ux, Initial residual = 0.000357895, Final residual = 5.8639e-06, No Iterations 2
smoothSolver:  Solving for Uy, Initial residual = 0.228098, Final residual = 0.00388488, No Iterations 2
GAMG:  Solving for p, Initial residual = 0.0076304, Final residual = 7.39126e-05, No Iterations 17
time step continuity errors : sum local = 0.000291679, global = 7.16431e-06, cumulative = 1.12571e-05
smoothSolver:  Solving for nuTilda, Initial residual = 0.000398817, Final residual = 1.05621e-05, No Iterations 2
ExecutionTime = 0.879528 s  ClockTime = 1 s

Time = 4s

smoothSolver:  Solving for Ux, Initial residual = 0.000250372, Final residual = 4.02839e-06, No Iterations 2
smoothSolver:  Solving for Uy, Initial residual = 0.136027, Final residual = 0.0022515, No Iterations 2
GAMG:  Solving for p, Initial residual = 0.0103402, Final residual = 0.000102279, No Iterations 53
time step continuity errors : sum local = 0.000259035, global = -1.16652e-05, cumulative = -4.08129e-07
smoothSolver:  Solving for nuTilda, Initial residual = 0.000265262, Final residual = 6.44745e-06, No Iterations 2
ExecutionTime = 0.995087 s  ClockTime = 1 s

Time = 5s

smoothSolver:  Solving for Ux, Initial residual = 0.000225417, Final residual = 3.45379e-06, No Iterations 2
smoothSolver:  Solving for Uy, Initial residual = 0.0591623, Final residual = 0.000936858, No Iterations 2
GAMG:  Solving for p, Initial residual = 0.00262799, Final residual = 2.57921e-05, No Iterations 106
time step continuity errors : sum local = 0.000169496, global = -9.18618e-06, cumulative = -9.59431e-06
smoothSolver:  Solving for nuTilda, Initial residual = 0.000292712, Final residual = 5.57362e-06, No Iterations 2
bounding nuTilda, min: -1.61712e-05 max: 0.000296035 average: 2.53479e-05
ExecutionTime = 1.27754 s  ClockTime = 1 s

Time = 6s

smoothSolver:  Solving for Ux, Initial residual = 0.000236712, Final residual = 3.42604e-06, No Iterations 2
smoothSolver:  Solving for Uy, Initial residual = 0.0324082, Final residual = 0.000484066, No Iterations 2
GAMG:  Solving for p, Initial residual = 0.000902297, Final residual = 4.32727e-06, No Iterations 170
time step continuity errors : sum local = 5.86679e-05, global = -1.40369e-07, cumulative = -9.73468e-06
smoothSolver:  Solving for nuTilda, Initial residual = 0.000420596, Final residual = 6.77103e-06, No Iterations 2
bounding nuTilda, min: -7.85275e-06 max: 0.000500591 average: 2.56258e-05
ExecutionTime = 1.59875 s  ClockTime = 2 s

Time = 7s

smoothSolver:  Solving for Ux, Initial residual = 0.000530789, Final residual = 7.54368e-06, No Iterations 2
smoothSolver:  Solving for Uy, Initial residual = 0.0143436, Final residual = 0.00023019, No Iterations 2
GAMG:  Solving for p, Initial residual = 0.000971381, Final residual = 9.67663e-06, No Iterations 119
time step continuity errors : sum local = 0.000139772, global = -7.05695e-06, cumulative = -1.67916e-05
smoothSolver:  Solving for nuTilda, Initial residual = 0.000799718, Final residual = 1.2336e-05, No Iterations 2
bounding nuTilda, min: -3.35108e-05 max: 0.000684001 average: 2.59675e-05
ExecutionTime = 1.83193 s  ClockTime = 2 s

Time = 8s

smoothSolver:  Solving for Ux, Initial residual = 0.00219586, Final residual = 3.20567e-05, No Iterations 2
smoothSolver:  Solving for Uy, Initial residual = 0.0378221, Final residual = 0.000619633, No Iterations 2
GAMG:  Solving for p, Initial residual = 0.00195463, Final residual = 1.92108e-05, No Iterations 84
time step continuity errors : sum local = 0.000194593, global = -6.60037e-06, cumulative = -2.3392e-05
smoothSolver:  Solving for nuTilda, Initial residual = 0.0114715, Final residual = 0.000180493, No Iterations 2
bounding nuTilda, min: -1.20372e-05 max: 0.000749102 average: 2.63975e-05
ExecutionTime = 2.00667 s  ClockTime = 2 s

Time = 9s

smoothSolver:  Solving for Ux, Initial residual = 0.000492742, Final residual = 7.64419e-06, No Iterations 2
smoothSolver:  Solving for Uy, Initial residual = 0.0139066, Final residual = 0.000227193, No Iterations 2
GAMG:  Solving for p, Initial residual = 0.0136964, Final residual = 0.000131391, No Iterations 59
time step continuity errors : sum local = 0.000204275, global = -8.17344e-07, cumulative = -2.42093e-05
smoothSolver:  Solving for nuTilda, Initial residual = 0.00114162, Final residual = 1.79854e-05, No Iterations 2
bounding nuTilda, min: -3.2637e-05 max: 0.000819224 average: 2.68628e-05
ExecutionTime = 2.13362 s  ClockTime = 2 s

Time = 10s

smoothSolver:  Solving for Ux, Initial residual = 0.000603052, Final residual = 8.68252e-06, No Iterations 2
smoothSolver:  Solving for Uy, Initial residual = 0.0527294, Final residual = 0.000840487, No Iterations 2
GAMG:  Solving for p, Initial residual = 0.0017118, Final residual = 1.54673e-05, No Iterations 173
time step continuity errors : sum local = 0.000150096, global = 7.29229e-08, cumulative = -2.41364e-05
smoothSolver:  Solving for nuTilda, Initial residual = 0.000691945, Final residual = 1.07881e-05, No Iterations 2
bounding nuTilda, min: -4.81312e-05 max: 0.00119547 average: 2.74094e-05
ExecutionTime = 2.53308 s  ClockTime = 2 s

End

