/*---------------------------------------------------------------------------*\
| =========                 |                                                 |
| \\      /  F ield         | OpenFOAM: The Open Source CFD Toolbox           |
|  \\    /   O peration     | Version:  2406                                  |
|   \\  /    A nd           | Website:  www.openfoam.com                      |
|    \\/     M anipulation  |                                                 |
\*---------------------------------------------------------------------------*/
Build  : _9bfe8264-20241212 OPENFOAM=2406 patch=241212 version=2406
Arch   : "LSB;label=32;scalar=64"
Exec   : buoyantSimpleFoam -case /home/ChatCFD_0527/run_chatcfd/Buoyant_Cavity_0
Date   : Jun 05 2025
Time   : 23:59:06
Host   : bohrium-87753-1326080
PID    : 75208
I/O    : uncollated
Case   : /home/ChatCFD_0527/run_chatcfd/Buoyant_Cavity_0
nProcs : 1
trapFpe: Floating point exception trapping enabled (FOAM_SIGFPE).
fileModificationChecking : Monitoring run-time modified files using timeStampMaster (fileModificationSkew 5, maxFileModificationPolls 20)
allowSystemOperations : Allowing user-supplied system call operations

// * * * * * * * * * * * * * * * * * * * * * * * * * * * * * * * * * * * * * //
Create time

Create mesh for time = 0


SIMPLE: convergence criteria
    field p_rgh	 tolerance 1e-05
    field U	 tolerance 1e-05
    field T	 tolerance 1e-05
    field k	 tolerance 1e-05
    field omega	 tolerance 1e-05

Reading thermophysical properties

Selecting thermodynamics package 
{
    type            heRhoThermo;
    mixture         pureMixture;
    transport       const;
    thermo          hConst;
    equationOfState perfectGas;
    specie          specie;
    energy          sensibleEnthalpy;
}

Reading field U

Reading/calculating face flux field phi

Creating turbulence model

Selecting turbulence model type RAS
Selecting RAS turbulence model kOmegaSST
Selecting patchDistMethod meshWave
RAS
{
    RASModel        kOmegaSST;
    turbulence      on;
    printCoeffs     on;
    Prt             0.85;
    alphaK1         0.85;
    alphaK2         1;
    alphaOmega1     0.5;
    alphaOmega2     0.856;
    gamma1          0.555556;
    gamma2          0.44;
    beta1           0.075;
    beta2           0.0828;
    betaStar        0.09;
    a1              0.31;
    b1              1;
    c1              10;
    F3              false;
    decayControl    false;
    kInf            0;
    omegaInf        0;
}


Reading g

Reading hRef
Calculating field g.h

Reading field p_rgh

No MRF models present

Radiation model not active: radiationProperties not found
Selecting radiationModel none
No finite volume options present

Starting time loop

Time = 1

smoothSolver:  Solving for Ux, Initial residual = 1, Final residual = 0.330696, No Iterations 1000
smoothSolver:  Solving for Uy, Initial residual = 1, Final residual = 0.348398, No Iterations 1000
smoothSolver:  Solving for Uz, Initial residual = 0.999995, Final residual = 0.0990281, No Iterations 46
DILUPBiCGStab:  Solving for h, Initial residual = 1, Final residual = 0.00980447, No Iterations 11
GAMG:  Solving for p_rgh, Initial residual = 0.999948, Final residual = 0.00892656, No Iterations 43
GAMG:  Solving for p_rgh, Initial residual = 0.00397945, Final residual = 3.08374e-05, No Iterations 78
GAMG:  Solving for p_rgh, Initial residual = 3.0796e-05, Final residual = 2.79411e-07, No Iterations 102
time step continuity errors : sum local = 0.000426394, global = 2.93377e-17, cumulative = 2.93377e-17
rho min/max : 1.10574 1.18877
DILUPBiCGStab:  Solving for omega, Initial residual = 0.0908977, Final residual = 0.00824168, No Iterations 2
DILUPBiCGStab:  Solving for k, Initial residual = 1, Final residual = 0.0588382, No Iterations 2
ExecutionTime = 6.96 s  ClockTime = 7 s

Time = 2

