/*---------------------------------------------------------------------------*\
  =========                 |
  \\      /  F ield         | OpenFOAM: The Open Source CFD Toolbox
   \\    /   O peration     | Website:  https://openfoam.org
    \\  /    A nd           | Version:  10
     \\/     M anipulation  |
\*---------------------------------------------------------------------------*/
Build  : 10-c4cf895ad8fa
Exec   : simpleFoam -case /home/hk/hk_project/ChatCFD_to_hk/run_chatcfd/Case1_NACA0012_SA_0deg_2
Date   : May 10 2025
Time   : 05:42:15
Host   : "WP"
PID    : 66656
I/O    : uncollated
Case   : /home/hk/hk_project/ChatCFD_to_hk/run_chatcfd/Case1_NACA0012_SA_0deg_2
nProcs : 1
sigFpe : Enabling floating point exception trapping (FOAM_SIGFPE).
fileModificationChecking : Monitoring run-time modified files using timeStampMaster (fileModificationSkew 10)
allowSystemOperations : Allowing user-supplied system call operations

// * * * * * * * * * * * * * * * * * * * * * * * * * * * * * * * * * * * * * //
Create time

--> FOAM Warning : 
    From function void* Foam::dlOpen(const Foam::fileName&, bool)
    in file POSIX.C at line 1247
    dlopen error : libincompressibleRASModels.so: cannot open shared object file: No such file or directory
--> FOAM Warning : 
    From function bool Foam::dlLibraryTable::open(const Foam::fileName&, bool)
    in file db/dynamicLibrary/dlLibraryTable/dlLibraryTable.C at line 106
    could not load "libincompressibleRASModels.so"
Create mesh for time = 0


SIMPLE: Convergence criteria found
        p: tolerance 1e-05
        U: tolerance 1e-05
        nuTilda: tolerance 1e-05

Reading field p

Reading field U

Reading/calculating face flux field phi

Selecting viscosity model Newtonian
Selecting turbulence model type RAS
Selecting RAS turbulence model SpalartAllmaras
Selecting patchDistMethod meshWave
RAS
{
    RASModel        SpalartAllmaras;
    turbulence      on;
    printCoeffs     on;
    sigmaNut        0.66666;
    kappa           0.41;
    Cb1             0.1355;
    Cb2             0.622;
    Cw2             0.3;
    Cw3             2;
    Cv1             7.1;
    Cs              0.3;
}

No MRF models present

No fvModels present
No fvConstraints present

Starting time loop

Time = 1s

smoothSolver:  Solving for Ux, Initial residual = 1, Final residual = 0.035725, No Iterations 1
smoothSolver:  Solving for Uy, Initial residual = 1, Final residual = 0.0872527, No Iterations 1
GAMG:  Solving for p, Initial residual = 1, Final residual = 0.00999367, No Iterations 317
GAMG:  Solving for p, Initial residual = 0.00033061, Final residual = 3.30518e-06, No Iterations 145
GAMG:  Solving for p, Initial residual = 3.33619e-05, Final residual = 3.33394e-07, No Iterations 501
time step continuity errors : sum local = 1.38877e-06, global = 2.10882e-09, cumulative = 2.10882e-09
smoothSolver:  Solving for nuTilda, Initial residual = 1, Final residual = 0.0151304, No Iterations 1
ExecutionTime = 2.06541 s  ClockTime = 2 s

Time = 2s

smoothSolver:  Solving for Ux, Initial residual = 0.00491526, Final residual = 0.000321849, No Iterations 1
smoothSolver:  Solving for Uy, Initial residual = 0.372559, Final residual = 0.0218327, No Iterations 1
GAMG:  Solving for p, Initial residual = 0.00744607, Final residual = 7.16942e-05, No Iterations 79
GAMG:  Solving for p, Initial residual = 0.000407249, Final residual = 4.04452e-06, No Iterations 254
GAMG:  Solving for p, Initial residual = 4.92548e-05, Final residual = 4.92154e-07, No Iterations 458
time step continuity errors : sum local = 7.20498e-07, global = 1.11628e-09, cumulative = 3.2251e-09
smoothSolver:  Solving for nuTilda, Initial residual = 0.00668281, Final residual = 0.000363622, No Iterations 1
ExecutionTime = 3.45933 s  ClockTime = 3 s

Time = 3s

smoothSolver:  Solving for Ux, Initial residual = 0.00081284, Final residual = 4.93806e-05, No Iterations 1
smoothSolver:  Solving for Uy, Initial residual = 0.0746241, Final residual = 0.00385089, No Iterations 1
GAMG:  Solving for p, Initial residual = 0.0109843, Final residual = 0.000105121, No Iterations 46
GAMG:  Solving for p, Initial residual = 0.00103309, Final residual = 1.03075e-05, No Iterations 304
GAMG:  Solving for p, Initial residual = 0.000155348, Final residual = 1.54751e-06, No Iterations 423
time step continuity errors : sum local = 6.77409e-07, global = -1.10832e-09, cumulative = 2.11678e-09
smoothSolver:  Solving for nuTilda, Initial residual = 0.00112546, Final residual = 3.53437e-05, No Iterations 2
ExecutionTime = 4.82317 s  ClockTime = 5 s

Time = 4s

smoothSolver:  Solving for Ux, Initial residual = 0.000505881, Final residual = 2.97943e-05, No Iterations 1
smoothSolver:  Solving for Uy, Initial residual = 0.0627901, Final residual = 0.00300305, No Iterations 1
GAMG:  Solving for p, Initial residual = 0.013866, Final residual = 0.0001311, No Iterations 76
GAMG:  Solving for p, Initial residual = 0.000797982, Final residual = 7.9418e-06, No Iterations 299
GAMG:  Solving for p, Initial residual = 0.000103965, Final residual = 1.03727e-06, No Iterations 492
time step continuity errors : sum local = 1.08317e-06, global = -1.65953e-09, cumulative = 4.57249e-10
smoothSolver:  Solving for nuTilda, Initial residual = 0.00068957, Final residual = 2.3515e-05, No Iterations 2
ExecutionTime = 6.41898 s  ClockTime = 6 s

Time = 5s

smoothSolver:  Solving for Ux, Initial residual = 0.00034359, Final residual = 2.04495e-05, No Iterations 1
smoothSolver:  Solving for Uy, Initial residual = 0.0836991, Final residual = 0.00370675, No Iterations 1
GAMG:  Solving for p, Initial residual = 0.0253241, Final residual = 0.000243809, No Iterations 80
GAMG:  Solving for p, Initial residual = 0.000490246, Final residual = 4.89371e-06, No Iterations 294
GAMG:  Solving for p, Initial residual = 5.60102e-05, Final residual = 5.58247e-07, No Iterations 517
time step continuity errors : sum local = 1.08736e-06, global = -1.6525e-09, cumulative = -1.19525e-09
smoothSolver:  Solving for nuTilda, Initial residual = 0.000739468, Final residual = 2.15534e-05, No Iterations 2
ExecutionTime = 8.0929 s  ClockTime = 8 s

Time = 6s

smoothSolver:  Solving for Ux, Initial residual = 0.000219625, Final residual = 1.57383e-05, No Iterations 1
smoothSolver:  Solving for Uy, Initial residual = 0.0166336, Final residual = 0.000808624, No Iterations 1
GAMG:  Solving for p, Initial residual = 0.0213836, Final residual = 0.000211269, No Iterations 98
GAMG:  Solving for p, Initial residual = 0.000412027, Final residual = 4.10945e-06, No Iterations 271
GAMG:  Solving for p, Initial residual = 4.45207e-05, Final residual = 4.45158e-07, No Iterations 515
time step continuity errors : sum local = 8.09526e-07, global = -1.22179e-09, cumulative = -2.41703e-09
smoothSolver:  Solving for nuTilda, Initial residual = 0.0010526, Final residual = 2.61711e-05, No Iterations 2
ExecutionTime = 9.71339 s  ClockTime = 9 s

Time = 7s

smoothSolver:  Solving for Ux, Initial residual = 0.000277663, Final residual = 1.96522e-05, No Iterations 1
smoothSolver:  Solving for Uy, Initial residual = 0.0101031, Final residual = 0.000560058, No Iterations 1
GAMG:  Solving for p, Initial residual = 0.00501168, Final residual = 4.78631e-05, No Iterations 74
GAMG:  Solving for p, Initial residual = 0.000354204, Final residual = 3.53239e-06, No Iterations 244
GAMG:  Solving for p, Initial residual = 4.08993e-05, Final residual = 4.0762e-07, No Iterations 454
time step continuity errors : sum local = 4.59076e-07, global = -7.33046e-10, cumulative = -3.15008e-09
smoothSolver:  Solving for nuTilda, Initial residual = 0.0024076, Final residual = 5.42532e-05, No Iterations 2
ExecutionTime = 11.0861 s  ClockTime = 11 s

Time = 8s

smoothSolver:  Solving for Ux, Initial residual = 0.000551789, Final residual = 3.55834e-05, No Iterations 1
smoothSolver:  Solving for Uy, Initial residual = 0.0115638, Final residual = 0.000645952, No Iterations 1
GAMG:  Solving for p, Initial residual = 0.00601206, Final residual = 5.92691e-05, No Iterations 41
GAMG:  Solving for p, Initial residual = 0.000566498, Final residual = 5.63547e-06, No Iterations 293
GAMG:  Solving for p, Initial residual = 9.29838e-05, Final residual = 9.27433e-07, No Iterations 444
time step continuity errors : sum local = 3.64991e-07, global = 5.92567e-10, cumulative = -2.55751e-09
smoothSolver:  Solving for nuTilda, Initial residual = 0.00775691, Final residual = 0.000156733, No Iterations 2
ExecutionTime = 12.494 s  ClockTime = 12 s

Time = 9s

smoothSolver:  Solving for Ux, Initial residual = 0.00100087, Final residual = 6.45038e-05, No Iterations 1
smoothSolver:  Solving for Uy, Initial residual = 0.0105227, Final residual = 0.000585644, No Iterations 1
GAMG:  Solving for p, Initial residual = 0.00887914, Final residual = 8.58287e-05, No Iterations 78
GAMG:  Solving for p, Initial residual = 0.00143226, Final residual = 1.43088e-05, No Iterations 357
GAMG:  Solving for p, Initial residual = 0.000205828, Final residual = 2.05295e-06, No Iterations 515
time step continuity errors : sum local = 4.68764e-07, global = 7.13068e-10, cumulative = -1.84445e-09
smoothSolver:  Solving for nuTilda, Initial residual = 0.0018115, Final residual = 0.00018073, No Iterations 1
ExecutionTime = 14.2319 s  ClockTime = 14 s

Time = 10s

smoothSolver:  Solving for Ux, Initial residual = 0.00157301, Final residual = 0.00010241, No Iterations 1
smoothSolver:  Solving for Uy, Initial residual = 0.00986402, Final residual = 0.000544475, No Iterations 1
GAMG:  Solving for p, Initial residual = 0.0139355, Final residual = 0.000123742, No Iterations 95
GAMG:  Solving for p, Initial residual = 0.00047237, Final residual = 4.71903e-06, No Iterations 338
GAMG:  Solving for p, Initial residual = 5.57699e-05, Final residual = 5.56833e-07, No Iterations 535
time step continuity errors : sum local = 5.07553e-07, global = 7.64059e-10, cumulative = -1.08039e-09
smoothSolver:  Solving for nuTilda, Initial residual = 0.00118212, Final residual = 2.1608e-05, No Iterations 2
ExecutionTime = 16.0767 s  ClockTime = 16 s

End

