/*---------------------------------------------------------------------------*\
| =========                 |                                                 |
| \\      /  F ield         | OpenFOAM: The Open Source CFD Toolbox           |
|  \\    /   O peration     | Version:  2406                                  |
|   \\  /    A nd           | Website:  www.openfoam.com                      |
|    \\/     M anipulation  |                                                 |
\*---------------------------------------------------------------------------*/
Build  : _9bfe8264-20241212 OPENFOAM=2406 patch=241212 version=2406
Arch   : "LSB;label=32;scalar=64"
Exec   : reactingFoam -case /home/ChatCFD_0527/run_chatcfd/counterflow_flame_CH4_air_0
Date   : Jun 11 2025
Time   : 23:45:27
Host   : bohrium-87753-1326080
PID    : 6636
I/O    : uncollated
Case   : /home/ChatCFD_0527/run_chatcfd/counterflow_flame_CH4_air_0
nProcs : 1
trapFpe: Floating point exception trapping enabled (FOAM_SIGFPE).
fileModificationChecking : Monitoring run-time modified files using timeStampMaster (fileModificationSkew 5, maxFileModificationPolls 20)
allowSystemOperations : Allowing user-supplied system call operations

// * * * * * * * * * * * * * * * * * * * * * * * * * * * * * * * * * * * * * //
Create time

Create mesh for time = 0


PIMPLE: Operating solver in PISO mode

Reading thermophysical properties

Selecting thermodynamics package 
{
    type            hePsiThermo;
    mixture         reactingMixture;
    transport       sutherland;
    thermo          janaf;
    energy          sensibleEnthalpy;
    equationOfState perfectGas;
    specie          specie;
}

Selecting chemistryReader foamChemistryReader
    elements not defined in "/home/ChatCFD_0527/run_chatcfd/counterflow_flame_CH4_air_0/constant/reactions"
Reading field U

Reading/calculating face flux field phi

Creating turbulence model.

Selecting turbulence model type laminar
Selecting laminar stress model Stokes
Creating reaction model

Selecting combustion model laminar
Selecting chemistry solver 
{
    solver          ode;
    method          standard;
}

StandardChemistryModel: Number of species = 5 and reactions = 1
Selecting ODE solver Rosenbrock34
    using integrated reaction rate
Creating field dpdt

Creating field kinetic energy K

No MRF models present

No finite volume options present
Courant Number mean: 0.000273409 max: 0.0175681

Starting time loop

Courant Number mean: 0.000273409 max: 0.0175681
deltaT = 1.2e-05
Time = 1.2e-05

