/*---------------------------------------------------------------------------*\
  =========                 |
  \\      /  F ield         | OpenFOAM: The Open Source CFD Toolbox
   \\    /   O peration     | Website:  https://openfoam.org
    \\  /    A nd           | Version:  10
     \\/     M anipulation  |
\*---------------------------------------------------------------------------*/
Build  : 10-c4cf895ad8fa
Exec   : simpleFoam -case /home/hk/hk_project/ChatCFD_to_hk/run_chatcfd/NACA0012_SA_AoA10_1
Date   : May 10 2025
Time   : 03:26:00
Host   : "WP"
PID    : 58647
I/O    : uncollated
Case   : /home/hk/hk_project/ChatCFD_to_hk/run_chatcfd/NACA0012_SA_AoA10_1
nProcs : 1
sigFpe : Enabling floating point exception trapping (FOAM_SIGFPE).
fileModificationChecking : Monitoring run-time modified files using timeStampMaster (fileModificationSkew 10)
allowSystemOperations : Allowing user-supplied system call operations

// * * * * * * * * * * * * * * * * * * * * * * * * * * * * * * * * * * * * * //
Create time

Create mesh for time = 0


SIMPLE: Convergence criteria found
        p: tolerance 1e-05
        U: tolerance 1e-05
        nuTilda: tolerance 1e-05

Reading field p

Reading field U

Reading/calculating face flux field phi

Selecting viscosity model Newtonian
Selecting turbulence model type RAS
Selecting RAS turbulence model SpalartAllmaras
Selecting patchDistMethod meshWave
RAS
{
    model           SpalartAllmaras;
    turbulence      on;
    printCoeffs     on;
    sigmaNut        0.66666;
    kappa           0.41;
    Cb1             0.1355;
    Cb2             0.622;
    Cw2             0.3;
    Cw3             2;
    Cv1             7.1;
    Cs              0.3;
}

No MRF models present

No fvModels present
No fvConstraints present

Starting time loop

Time = 1s

DILUPBiCGStab:  Solving for Ux, Initial residual = 1, Final residual = 8.2391e-05, No Iterations 1
DILUPBiCGStab:  Solving for Uy, Initial residual = 1, Final residual = 8.64654e-05, No Iterations 1
DICPCG:  Solving for p, Initial residual = 1, Final residual = 0.0491578, No Iterations 72
time step continuity errors : sum local = 0.000127926, global = -2.55691e-05, cumulative = -2.55691e-05
DILUPBiCGStab:  Solving for nuTilda, Initial residual = 1, Final residual = 0.0057283, No Iterations 1
ExecutionTime = 0.190553 s  ClockTime = 0 s

Time = 2s

DILUPBiCGStab:  Solving for Ux, Initial residual = 0.0121649, Final residual = 0.00077308, No Iterations 1
DILUPBiCGStab:  Solving for Uy, Initial residual = 0.0249646, Final residual = 0.00107705, No Iterations 1
DICPCG:  Solving for p, Initial residual = 0.0272939, Final residual = 0.00134483, No Iterations 33
time step continuity errors : sum local = 0.00144998, global = 3.14274e-05, cumulative = 5.8583e-06
DILUPBiCGStab:  Solving for nuTilda, Initial residual = 0.0133878, Final residual = 0.0013327, No Iterations 9
ExecutionTime = 0.229273 s  ClockTime = 0 s

Time = 3s

DILUPBiCGStab:  Solving for Ux, Initial residual = 0.00179574, Final residual = 0.000123523, No Iterations 1
DILUPBiCGStab:  Solving for Uy, Initial residual = 0.00267009, Final residual = 0.000113699, No Iterations 1
DICPCG:  Solving for p, Initial residual = 0.0359507, Final residual = 0.00176669, No Iterations 28
time step continuity errors : sum local = 0.00198377, global = 1.47269e-05, cumulative = 2.05852e-05
DILUPBiCGStab:  Solving for nuTilda, Initial residual = 0.0255967, Final residual = 0.00137024, No Iterations 10
ExecutionTime = 0.266689 s  ClockTime = 0 s

Time = 4s

DILUPBiCGStab:  Solving for Ux, Initial residual = 0.00129535, Final residual = 8.29801e-05, No Iterations 1
DILUPBiCGStab:  Solving for Uy, Initial residual = 0.00187668, Final residual = 7.88858e-05, No Iterations 1
DICPCG:  Solving for p, Initial residual = 0.0369762, Final residual = 0.00176609, No Iterations 43
time step continuity errors : sum local = 0.00150329, global = 0.000103564, cumulative = 0.000124149
DILUPBiCGStab:  Solving for nuTilda, Initial residual = 0.0164221, Final residual = 0.0013679, No Iterations 2
ExecutionTime = 0.303687 s  ClockTime = 0 s

Time = 5s

DILUPBiCGStab:  Solving for Ux, Initial residual = 0.000874342, Final residual = 5.60314e-05, No Iterations 1
DILUPBiCGStab:  Solving for Uy, Initial residual = 0.00139051, Final residual = 5.68682e-05, No Iterations 1
DICPCG:  Solving for p, Initial residual = 0.0871676, Final residual = 0.00389568, No Iterations 49
time step continuity errors : sum local = 0.000952577, global = -7.20668e-05, cumulative = 5.20822e-05
DILUPBiCGStab:  Solving for nuTilda, Initial residual = 0.00621099, Final residual = 0.000570879, No Iterations 8
ExecutionTime = 0.419287 s  ClockTime = 0 s

Time = 6s

DILUPBiCGStab:  Solving for Ux, Initial residual = 0.000583517, Final residual = 3.93111e-05, No Iterations 1
DILUPBiCGStab:  Solving for Uy, Initial residual = 0.00110794, Final residual = 5.10332e-05, No Iterations 1
DICPCG:  Solving for p, Initial residual = 0.0324256, Final residual = 0.00146351, No Iterations 49
time step continuity errors : sum local = 0.000694697, global = -8.22107e-05, cumulative = -3.01285e-05
DILUPBiCGStab:  Solving for nuTilda, Initial residual = 0.00407028, Final residual = 0.000210335, No Iterations 7
ExecutionTime = 0.463545 s  ClockTime = 0 s

Time = 7s

DILUPBiCGStab:  Solving for Ux, Initial residual = 0.00121655, Final residual = 7.54958e-05, No Iterations 1
DILUPBiCGStab:  Solving for Uy, Initial residual = 0.00275619, Final residual = 0.000162491, No Iterations 1
DICPCG:  Solving for p, Initial residual = 0.0265244, Final residual = 0.00122713, No Iterations 33
time step continuity errors : sum local = 0.00102016, global = 7.17474e-05, cumulative = 4.16189e-05
DILUPBiCGStab:  Solving for nuTilda, Initial residual = 0.00342345, Final residual = 0.000202564, No Iterations 8
ExecutionTime = 0.5013 s  ClockTime = 0 s

Time = 8s

DILUPBiCGStab:  Solving for Ux, Initial residual = 0.00387709, Final residual = 0.000225116, No Iterations 1
DILUPBiCGStab:  Solving for Uy, Initial residual = 0.0201631, Final residual = 0.00111475, No Iterations 1
DICPCG:  Solving for p, Initial residual = 0.0290645, Final residual = 0.00129912, No Iterations 9
time step continuity errors : sum local = 0.00107152, global = -5.35501e-06, cumulative = 3.62639e-05
DILUPBiCGStab:  Solving for nuTilda, Initial residual = 0.00330013, Final residual = 0.000265528, No Iterations 4
ExecutionTime = 0.526094 s  ClockTime = 0 s

Time = 9s

DILUPBiCGStab:  Solving for Ux, Initial residual = 0.0200346, Final residual = 0.00167668, No Iterations 1
DILUPBiCGStab:  Solving for Uy, Initial residual = 0.00400583, Final residual = 0.000219215, No Iterations 1
DICPCG:  Solving for p, Initial residual = 0.0370008, Final residual = 0.00184154, No Iterations 26
time step continuity errors : sum local = 0.00101114, global = -2.54249e-05, cumulative = 1.0839e-05
DILUPBiCGStab:  Solving for nuTilda, Initial residual = 0.00372935, Final residual = 0.000294316, No Iterations 6
ExecutionTime = 0.559027 s  ClockTime = 0 s

Time = 10s

DILUPBiCGStab:  Solving for Ux, Initial residual = 0.0127376, Final residual = 0.00126599, No Iterations 1
DILUPBiCGStab:  Solving for Uy, Initial residual = 0.00418774, Final residual = 0.00023137, No Iterations 1
DICPCG:  Solving for p, Initial residual = 0.0571373, Final residual = 0.00276474, No Iterations 44
time step continuity errors : sum local = 0.000670441, global = -3.46612e-05, cumulative = -2.38222e-05
DILUPBiCGStab:  Solving for nuTilda, Initial residual = 0.00340037, Final residual = 0.000324572, No Iterations 4
ExecutionTime = 0.669983 s  ClockTime = 0 s

End

