/*---------------------------------------------------------------------------*\
  =========                 |
  \\      /  F ield         | OpenFOAM: The Open Source CFD Toolbox
   \\    /   O peration     | Website:  https://openfoam.org
    \\  /    A nd           | Version:  10
     \\/     M anipulation  |
\*---------------------------------------------------------------------------*/
Build  : 10-c4cf895ad8fa
Exec   : simpleFoam -case /home/hk/hk_project/ChatCFD_to_hk/run_chatcfd/Case1_NACA0012_SA_0deg_0
Date   : May 10 2025
Time   : 05:27:32
Host   : "WP"
PID    : 64626
I/O    : uncollated
Case   : /home/hk/hk_project/ChatCFD_to_hk/run_chatcfd/Case1_NACA0012_SA_0deg_0
nProcs : 1
sigFpe : Enabling floating point exception trapping (FOAM_SIGFPE).
fileModificationChecking : Monitoring run-time modified files using timeStampMaster (fileModificationSkew 10)
allowSystemOperations : Allowing user-supplied system call operations

// * * * * * * * * * * * * * * * * * * * * * * * * * * * * * * * * * * * * * //
Create time

Create mesh for time = 0


SIMPLE: Convergence criteria found
        p: tolerance 1e-05
        U: tolerance 1e-05
        nuTilda: tolerance 1e-05

Reading field p

Reading field U

Reading/calculating face flux field phi

Selecting viscosity model Newtonian
Selecting turbulence model type RAS
Selecting RAS turbulence model SpalartAllmaras
Selecting patchDistMethod meshWave
RAS
{
    model           SpalartAllmaras;
    turbulence      on;
    printCoeffs     on;
    sigmaNut        0.66666;
    kappa           0.41;
    Cb1             0.1355;
    Cb2             0.622;
    Cw2             0.3;
    Cw3             2;
    Cv1             7.1;
    Cs              0.3;
}

No MRF models present

No fvModels present
No fvConstraints present

Starting time loop

Time = 1s

smoothSolver:  Solving for Ux, Initial residual = 1, Final residual = 0.00291977, No Iterations 1
smoothSolver:  Solving for Uy, Initial residual = 1, Final residual = 0.00848428, No Iterations 1
GAMG:  Solving for p, Initial residual = 1, Final residual = 0.00999513, No Iterations 333
time step continuity errors : sum local = 2.66139e-05, global = 7.65846e-08, cumulative = 7.65846e-08
smoothSolver:  Solving for nuTilda, Initial residual = 1, Final residual = 9.94698e-06, No Iterations 149
ExecutionTime = 0.926188 s  ClockTime = 1 s

Time = 2s

smoothSolver:  Solving for Ux, Initial residual = 0.004995, Final residual = 3.1267e-05, No Iterations 1
smoothSolver:  Solving for Uy, Initial residual = 0.374375, Final residual = 0.00215995, No Iterations 1
GAMG:  Solving for p, Initial residual = 0.00977995, Final residual = 9.28707e-05, No Iterations 34
time step continuity errors : sum local = 0.000503231, global = -9.77317e-05, cumulative = -9.76551e-05
smoothSolver:  Solving for nuTilda, Initial residual = 0.0399233, Final residual = 9.77052e-06, No Iterations 271
ExecutionTime = 1.18366 s  ClockTime = 1 s

Time = 3s

smoothSolver:  Solving for Ux, Initial residual = 0.000617573, Final residual = 3.49505e-06, No Iterations 1
smoothSolver:  Solving for Uy, Initial residual = 0.161744, Final residual = 0.000838524, No Iterations 1
GAMG:  Solving for p, Initial residual = 0.014299, Final residual = 0.000139526, No Iterations 76
time step continuity errors : sum local = 0.000311555, global = -3.02618e-05, cumulative = -0.000127917
smoothSolver:  Solving for nuTilda, Initial residual = 0.00642533, Final residual = 9.92248e-06, No Iterations 102
ExecutionTime = 1.40424 s  ClockTime = 1 s

Time = 4s

smoothSolver:  Solving for Ux, Initial residual = 0.000217775, Final residual = 1.30359e-06, No Iterations 1
smoothSolver:  Solving for Uy, Initial residual = 0.0352871, Final residual = 0.000237629, No Iterations 1
GAMG:  Solving for p, Initial residual = 0.0268298, Final residual = 0.000257809, No Iterations 114
time step continuity errors : sum local = 9.61658e-05, global = -8.70604e-07, cumulative = -0.000128787
smoothSolver:  Solving for nuTilda, Initial residual = 0.00536769, Final residual = 9.83225e-06, No Iterations 143
ExecutionTime = 1.71581 s  ClockTime = 2 s

Time = 5s

smoothSolver:  Solving for Ux, Initial residual = 0.000525664, Final residual = 1.86345e-07, No Iterations 2
smoothSolver:  Solving for Uy, Initial residual = 0.0572244, Final residual = 1.59568e-05, No Iterations 2
GAMG:  Solving for p, Initial residual = 0.0035549, Final residual = 3.32048e-05, No Iterations 40
time step continuity errors : sum local = 0.000117854, global = -1.76121e-06, cumulative = -0.000130549
smoothSolver:  Solving for nuTilda, Initial residual = 0.00704634, Final residual = 9.91677e-06, No Iterations 147
ExecutionTime = 1.97735 s  ClockTime = 2 s

Time = 6s

smoothSolver:  Solving for Ux, Initial residual = 0.000699932, Final residual = 2.04191e-07, No Iterations 2
smoothSolver:  Solving for Uy, Initial residual = 0.0561966, Final residual = 0.000505105, No Iterations 1
GAMG:  Solving for p, Initial residual = 0.00362165, Final residual = 3.56546e-05, No Iterations 45
time step continuity errors : sum local = 7.0325e-05, global = 1.19697e-06, cumulative = -0.000129352
smoothSolver:  Solving for nuTilda, Initial residual = 0.00591533, Final residual = 9.86793e-06, No Iterations 169
ExecutionTime = 2.19041 s  ClockTime = 2 s

Time = 7s

smoothSolver:  Solving for Ux, Initial residual = 0.000329794, Final residual = 2.74645e-06, No Iterations 1
smoothSolver:  Solving for Uy, Initial residual = 0.0247139, Final residual = 0.000158899, No Iterations 1
GAMG:  Solving for p, Initial residual = 0.0354515, Final residual = 0.000351848, No Iterations 96
time step continuity errors : sum local = 3.64121e-05, global = 8.8203e-07, cumulative = -0.00012847
smoothSolver:  Solving for nuTilda, Initial residual = 0.00350834, Final residual = 9.90256e-06, No Iterations 112
ExecutionTime = 2.46692 s  ClockTime = 2 s

Time = 8s

smoothSolver:  Solving for Ux, Initial residual = 0.000195772, Final residual = 7.03762e-08, No Iterations 2
smoothSolver:  Solving for Uy, Initial residual = 0.0147074, Final residual = 3.65099e-06, No Iterations 2
GAMG:  Solving for p, Initial residual = 0.00319386, Final residual = 2.80455e-05, No Iterations 74
time step continuity errors : sum local = 2.42193e-05, global = 2.47164e-07, cumulative = -0.000128223
smoothSolver:  Solving for nuTilda, Initial residual = 0.00171489, Final residual = 9.86436e-06, No Iterations 133
ExecutionTime = 2.73101 s  ClockTime = 3 s

Time = 9s

smoothSolver:  Solving for Ux, Initial residual = 0.000144743, Final residual = 3.82632e-08, No Iterations 2
smoothSolver:  Solving for Uy, Initial residual = 0.0108615, Final residual = 8.4259e-05, No Iterations 1
GAMG:  Solving for p, Initial residual = 0.00359712, Final residual = 3.5507e-05, No Iterations 71
time step continuity errors : sum local = 1.55413e-05, global = 2.67298e-07, cumulative = -0.000127955
smoothSolver:  Solving for nuTilda, Initial residual = 0.00129499, Final residual = 9.90606e-06, No Iterations 155
ExecutionTime = 2.99252 s  ClockTime = 3 s

Time = 10s

smoothSolver:  Solving for Ux, Initial residual = 0.00010159, Final residual = 7.74019e-07, No Iterations 1
smoothSolver:  Solving for Uy, Initial residual = 0.00829226, Final residual = 4.13041e-05, No Iterations 1
GAMG:  Solving for p, Initial residual = 0.0610012, Final residual = 0.000605173, No Iterations 94
time step continuity errors : sum local = 6.76448e-06, global = -4.4946e-08, cumulative = -0.000128
smoothSolver:  Solving for nuTilda, Initial residual = 0.000802139, Final residual = 9.93318e-06, No Iterations 100
ExecutionTime = 3.31453 s  ClockTime = 3 s

End

