/*---------------------------------------------------------------------------*\
| =========                 |                                                 |
| \\      /  F ield         | OpenFOAM: The Open Source CFD Toolbox           |
|  \\    /   O peration     | Version:  2406                                  |
|   \\  /    A nd           | Website:  www.openfoam.com                      |
|    \\/     M anipulation  |                                                 |
\*---------------------------------------------------------------------------*/
Build  : _9bfe8264-20241212 OPENFOAM=2406 patch=241212 version=2406
Arch   : "LSB;label=32;scalar=64"
Exec   : reactingFoam -case /home/ChatCFD_0527/run_chatcfd/Counterflow_Flame_2D_Laminar_1
Date   : Jun 11 2025
Time   : 21:09:37
Host   : bohrium-87753-1326080
PID    : 17924
I/O    : uncollated
Case   : /home/ChatCFD_0527/run_chatcfd/Counterflow_Flame_2D_Laminar_1
nProcs : 1
trapFpe: Floating point exception trapping enabled (FOAM_SIGFPE).
fileModificationChecking : Monitoring run-time modified files using timeStampMaster (fileModificationSkew 5, maxFileModificationPolls 20)
allowSystemOperations : Allowing user-supplied system call operations

// * * * * * * * * * * * * * * * * * * * * * * * * * * * * * * * * * * * * * //
Create time

Create mesh for time = 0


PIMPLE: Operating solver in PISO mode

Reading thermophysical properties

Selecting thermodynamics package 
{
    type            hePsiThermo;
    mixture         reactingMixture;
    transport       sutherland;
    thermo          janaf;
    energy          sensibleEnthalpy;
    equationOfState perfectGas;
    specie          specie;
}

Selecting chemistryReader foamChemistryReader
