/*---------------------------------------------------------------------------*\
  =========                 |
  \\      /  F ield         | OpenFOAM: The Open Source CFD Toolbox
   \\    /   O peration     | Website:  https://openfoam.org
    \\  /    A nd           | Version:  10
     \\/     M anipulation  |
\*---------------------------------------------------------------------------*/
Build  : 10-c4cf895ad8fa
Exec   : pimpleFoam -case /home/hk/hk_project/ChatCFD_to_hk/run_chatcfd/Transient_Flow_Past_Cylinder_Re3.6e6_0
Date   : May 10 2025
Time   : 19:09:07
Host   : "WP"
PID    : 20832
I/O    : uncollated
Case   : /home/hk/hk_project/ChatCFD_to_hk/run_chatcfd/Transient_Flow_Past_Cylinder_Re3.6e6_0
nProcs : 1
sigFpe : Enabling floating point exception trapping (FOAM_SIGFPE).
fileModificationChecking : Monitoring run-time modified files using timeStampMaster (fileModificationSkew 10)
allowSystemOperations : Allowing user-supplied system call operations

// * * * * * * * * * * * * * * * * * * * * * * * * * * * * * * * * * * * * * //
Create time

Create mesh for time = 0


PIMPLE: No convergence criteria found


PIMPLE: No corrector convergence criteria found
        Calculations will do 2 corrections


PIMPLE: Operating solver in transient mode with 2 outer correctors


Reading field p

